Version 4
SHEET 1 880 680
WIRE -160 -128 -304 -128
WIRE -160 -96 -160 -128
WIRE -304 -80 -304 -128
WIRE -304 16 -304 0
WIRE -160 32 -160 -16
WIRE -48 32 -160 32
WIRE 48 32 32 32
WIRE 80 32 48 32
WIRE 176 32 160 32
WIRE 272 32 176 32
WIRE -256 80 -304 80
WIRE -240 80 -256 80
WIRE 48 112 48 32
WIRE 80 112 48 112
WIRE 176 112 176 32
WIRE 176 112 160 112
WIRE -304 144 -304 80
WIRE -160 144 -160 32
WIRE 48 144 48 112
WIRE 176 144 176 112
WIRE 272 176 272 32
WIRE -304 304 -304 224
WIRE -160 304 -160 224
WIRE 48 304 48 208
WIRE 176 304 176 208
WIRE 272 304 272 256
FLAG 272 304 0
FLAG 176 304 0
FLAG 48 304 0
FLAG -160 304 0
FLAG 48 32 i
FLAG 272 32 o
FLAG -304 304 0
FLAG -256 80 s
FLAG -304 16 0
SYMBOL res 256 160 R0
SYMATTR InstName R1
SYMATTR Value {Rl}
SYMBOL cap 32 144 R0
SYMATTR InstName C1
SYMATTR Value {C1}
SYMBOL cap 160 144 R0
SYMATTR InstName C2
SYMATTR Value {C2}
SYMBOL ind 64 48 R270
WINDOW 0 32 56 VTop 2
WINDOW 3 5 56 VBottom 2
SYMATTR InstName L1
SYMATTR Value {L1}
SYMBOL res 176 96 R90
WINDOW 0 0 56 VBottom 2
WINDOW 3 32 56 VTop 2
SYMATTR InstName rp
SYMATTR Value {rp}
SYMBOL res -64 48 R270
WINDOW 0 32 56 VTop 2
WINDOW 3 0 56 VBottom 2
SYMATTR InstName rs
SYMATTR Value 1e-3
SYMBOL bi -160 224 R180
WINDOW 0 24 80 Left 2
WINDOW 3 24 0 Left 2
SYMATTR InstName B1
SYMATTR Value I=(V(s)  >= 0) * V(s)
SYMBOL voltage -304 128 R0
WINDOW 123 0 0 Left 0
WINDOW 39 0 0 Left 0
SYMATTR InstName V1
SYMATTR Value SINE(0 2 100e6)
SYMBOL voltage -304 -96 R0
WINDOW 123 0 0 Left 0
WINDOW 39 0 0 Left 0
SYMATTR InstName V2
SYMATTR Value 110
SYMBOL ind -176 -112 R0
SYMATTR InstName L2
SYMATTR Value 1e-3
TEXT -98 328 Left 2 !;ac dec 10000 1e6 1e9
TEXT 360 72 Left 2 !.param Rl =  2.00e+02 \n.param rg =  1.00e+02 \n.param C1  =  4.2441e-10 \n.param C2  =  5.9979e-10 \n.param L1  =  1.0171e-08 \n.param rp  =  2.56e+02
TEXT -80 368 Left 2 !.tran 0 1000e-9 100e-9 startup
